Circuit: * C:\Users\kasia\Desktop\EITI\MSE sem 1\MOZA\MOZA P1\WSB.asc

Direct Newton iteration for .op point succeeded.

Date: Mon Dec 31 12:12:45 2018
Total elapsed time: 0.107 seconds.

tnom = 27
temp = 27
method = modified trap
totiter = 2090
traniter = 2082
tranpoints = 1042
accept = 1042
rejected = 0
matrix size = 22
fillins = 14
solver = Normal
Matrix Compiler1: 1.96 KB object code size  0.4/0.2/[0.1]
Matrix Compiler2: 1.98 KB object code size  0.2/0.3/[0.2]

