Circuit: * C:\Users\kasia\Desktop\MOZA P1\WSB.asc

Direct Newton iteration for .op point succeeded.

Date: Fri Dec 28 19:21:28 2018
Total elapsed time: 0.030 seconds.

tnom = 27
temp = 27
method = modified trap
totiter = 2090
traniter = 2082
tranpoints = 1042
accept = 1042
rejected = 0
matrix size = 22
fillins = 14
solver = Normal
Matrix Compiler1:     110 opcodes  0.3/[0.1]/0.2
Matrix Compiler2: off  [0.1]/0.2/0.2


